[root]
type=Root
children=system
eventq_index=0
full_system=true
sim_quantum=0
time_sync_enable=false
time_sync_period=100000000000
time_sync_spin_threshold=100000000

[system]
type=LinuxArmSystem
children=Root_Complex bridge cf0 clk_domain cpu cpu_clk_domain cpu_voltage_domain dvfs_handler intrctrl iobus iobus_dma iocache l2 mem_ctrls membus pcie1 pcie3 pcie4 pcie5 pcie6 pcie7 realview switch terminal tol2bus vncserver voltage_domain
atags_addr=134217728
boot_loader=/home/krishna/t_gem5/gem5/aarch-system-2014-10/binaries/boot_emm.arm64 /home/krishna/t_gem5/gem5/aarch-system-2014-10/binaries/boot_emm.arm
boot_osflags=earlyprintk=pl011,0x1c090000 console=ttyAMA0 lpj=19988480 norandmaps rw loglevel=8 mem=1GB root=/dev/sda1
cache_line_size=128
clk_domain=system.clk_domain
default_p_state=UNDEFINED
dtb_filename=/home/krishna/t_gem5/gem5/system/arm/dt/armv8_gem5_v1_1cpu.dtb
early_kernel_symbols=false
enable_context_switch_stats_dump=false
eventq_index=0
exit_on_work_items=false
flags_addr=469827632
gic_cpu_addr=738205696
have_large_asid_64=false
have_lpae=true
have_security=false
have_virtualization=false
highest_el_is_64=false
init_param=0
kernel=/home/krishna/t_gem5/vmlinux
kernel_addr_check=true
load_addr_mask=134217727
load_offset=2147483648
m5ops_base=268500992
machine_type=DTOnly
mem_mode=timing
mem_ranges=2147483648:3221225471:0:0:0:0
memories=system.mem_ctrls system.realview.nvmem
mmap_using_noreserve=false
multi_proc=true
multi_thread=false
num_work_ids=16
p_state_clk_gate_bins=20
p_state_clk_gate_max=1000000000000
p_state_clk_gate_min=1000
panic_on_oops=false
panic_on_panic=false
phys_addr_range_64=40
power_model=Null
readfile=
reset_addr_64=0
symbolfile=
thermal_components=
thermal_model=Null
work_begin_ckpt_count=0
work_begin_cpu_id_exit=-1
work_begin_exit_count=0
work_cpus_ckpt_count=0
work_end_ckpt_count=0
work_end_exit_count=0
work_item_id=-1
system_port=system.membus.slave[1]

[system.Root_Complex]
type=PciBridge
BAR0Size=0
BAR1Size=0
BIST=0
Bar0=0
Bar1=0
BridgeControl=0
CacheLineSize=0
CapabilityPointer=208
ClassCode=6
Command=1031
DeviceId1=40080
DeviceId2=40082
DeviceId3=40084
DeviceId_upstream=33330
ExpansionROMBaseAddress=0
HeaderType=1
IOBase=1
IOBaseUpper=12032
IOLimit=1
IOLimitUpper=12032
InterruptLine=32
InterruptPin=1
LatencyTimer=0
MemoryBase=0
MemoryLimit=0
PXCAPBaseOffset=208
PXCAPCapId=16
PXCAPCapabilities=65
PXCAPCapabilities_downstream=97
PXCAPCapabilities_upstream=81
PXCAPDevCap2=0
PXCAPDevCapabilities=577
PXCAPDevCtrl=4128
PXCAPDevCtrl2=0
PXCAPDevStatus=0
PXCAPLinkCap=16814097
PXCAPLinkCtrl=8
PXCAPLinkStatus=17
PXCAPNextCapability=0
PXCAPRootControl=0
PXCAPRootStatus=0
PrefetchableMemoryBase=0
PrefetchableMemoryBaseUpper=0
PrefetchableMemoryLimit=0
PrefetchableMemoryLimitUpper=0
PrimaryBusNumber=0
ProgIF=0
Revision=0
SecondaryBusNumber=0
SecondaryLatencyTimer=0
SecondaryStatus=0
Status=16
SubClassCode=4
SubordinateBusNumber=0
VendorId=32902
clk_domain=system.clk_domain
config_latency=20000
default_p_state=UNDEFINED
delay=150000
eventq_index=0
host=system.realview.pci_host
is_switch=0
is_transmit=1
p_state_clk_gate_bins=20
p_state_clk_gate_max=1000000000000
p_state_clk_gate_min=1000
pci_bus=0
pci_dev1=4
pci_dev2=5
pci_dev3=6
pci_func1=0
pci_func2=0
pci_func3=0
pci_upstream_dev=0
pci_upstream_func=0
power_model=Null
rc_id=0
req_size=16
resp_size=16
master1=system.pcie1.upstreamSlave
master2=system.pcie6.upstreamSlave
master3=system.pcie7.upstreamSlave
master_dma=system.iobus_dma.slave[0]
slave=system.membus.master[1]
slave_dma1=system.pcie1.upstreamMaster
slave_dma2=system.pcie6.upstreamMaster
slave_dma3=system.pcie7.upstreamMaster

[system.bridge]
type=Bridge
clk_domain=system.clk_domain
default_p_state=UNDEFINED
delay=50000
eventq_index=0
p_state_clk_gate_bins=20
p_state_clk_gate_max=1000000000000
p_state_clk_gate_min=1000
power_model=Null
ranges=201326592:536870911:0:0:0:0 805306368:1073741823:0:0:0:0
req_size=16
resp_size=16
master=system.iobus.slave[0]
slave=system.membus.master[0]

[system.cf0]
type=IdeDisk
children=image
delay=1000000
driveID=master
eventq_index=0
image=system.cf0.image

[system.cf0.image]
type=CowDiskImage
children=child
child=system.cf0.image.child
eventq_index=0
image_file=
read_only=false
table_size=65536

[system.cf0.image.child]
type=RawDiskImage
eventq_index=0
image_file=/home/krishna/t_gem5/gem5/aarch-system-2014-10/disks/aarch32-ubuntu-natty-headless_backup.img
read_only=true

[system.clk_domain]
type=SrcClockDomain
clock=1000
domain_id=-1
eventq_index=0
init_perf_level=0
voltage_domain=system.voltage_domain

[system.cpu]
type=DerivO3CPU
children=branchPred dcache dstage2_mmu dtb fuPool icache interrupts isa istage2_mmu itb tracer
LFSTSize=1024
LQEntries=32
LSQCheckLoads=true
LSQDepCheckShift=4
SQEntries=32
SSITSize=1024
activity=0
backComSize=5
branchPred=system.cpu.branchPred
cacheStorePorts=200
checker=Null
clk_domain=system.cpu_clk_domain
commitToDecodeDelay=1
commitToFetchDelay=1
commitToIEWDelay=1
commitToRenameDelay=1
commitWidth=8
cpu_id=0
decodeToFetchDelay=1
decodeToRenameDelay=1
decodeWidth=8
default_p_state=UNDEFINED
dispatchWidth=8
do_checkpoint_insts=true
do_quiesce=true
do_statistics_insts=true
dstage2_mmu=system.cpu.dstage2_mmu
dtb=system.cpu.dtb
eventq_index=0
fetchBufferSize=64
fetchQueueSize=32
fetchToDecodeDelay=1
fetchTrapLatency=1
fetchWidth=8
forwardComSize=5
fuPool=system.cpu.fuPool
function_trace=false
function_trace_start=0
iewToCommitDelay=1
iewToDecodeDelay=1
iewToFetchDelay=1
iewToRenameDelay=1
interrupts=system.cpu.interrupts
isa=system.cpu.isa
issueToExecuteDelay=1
issueWidth=8
istage2_mmu=system.cpu.istage2_mmu
itb=system.cpu.itb
max_insts_all_threads=0
max_insts_any_thread=0
max_loads_all_threads=0
max_loads_any_thread=0
needsTSO=false
numIQEntries=64
numPhysCCRegs=1280
numPhysFloatRegs=256
numPhysIntRegs=256
numPhysVecRegs=256
numROBEntries=192
numRobs=1
numThreads=1
p_state_clk_gate_bins=20
p_state_clk_gate_max=1000000000000
p_state_clk_gate_min=1000
power_model=Null
profile=0
progress_interval=0
renameToDecodeDelay=1
renameToFetchDelay=1
renameToIEWDelay=2
renameToROBDelay=1
renameWidth=8
simpoint_start_insts=
smtCommitPolicy=RoundRobin
smtFetchPolicy=SingleThread
smtIQPolicy=Partitioned
smtIQThreshold=100
smtLSQPolicy=Partitioned
smtLSQThreshold=100
smtNumFetchingThreads=1
smtROBPolicy=Partitioned
smtROBThreshold=100
socket_id=0
squashWidth=8
store_set_clear_period=250000
switched_out=false
syscallRetryLatency=10000
system=system
tracer=system.cpu.tracer
trapLatency=13
wait_for_remote_gdb=false
wbWidth=8
workload=
dcache_port=system.cpu.dcache.cpu_side
icache_port=system.cpu.icache.cpu_side

[system.cpu.branchPred]
type=TournamentBP
BTBEntries=4096
BTBTagSize=16
RASSize=16
choiceCtrBits=2
choicePredictorSize=8192
eventq_index=0
globalCtrBits=2
globalPredictorSize=8192
indirectHashGHR=true
indirectHashTargets=true
indirectPathLength=3
indirectSets=256
indirectTagSize=16
indirectWays=2
instShiftAmt=2
localCtrBits=2
localHistoryTableSize=2048
localPredictorSize=2048
numThreads=1
useIndirect=true

[system.cpu.dcache]
type=Cache
children=tags
addr_ranges=0:18446744073709551615:0:0:0:0
assoc=2
clk_domain=system.cpu_clk_domain
clusivity=mostly_incl
data_latency=2
default_p_state=UNDEFINED
demand_mshr_reserve=1
eventq_index=0
is_read_only=false
max_miss_count=0
mshrs=4
p_state_clk_gate_bins=20
p_state_clk_gate_max=1000000000000
p_state_clk_gate_min=1000
power_model=Null
prefetch_on_access=false
prefetcher=Null
response_latency=2
sequential_access=false
size=65536
system=system
tag_latency=2
tags=system.cpu.dcache.tags
tgts_per_mshr=20
write_buffers=8
writeback_clean=false
cpu_side=system.cpu.dcache_port
mem_side=system.tol2bus.slave[1]

[system.cpu.dcache.tags]
type=LRU
assoc=2
block_size=128
clk_domain=system.cpu_clk_domain
data_latency=2
default_p_state=UNDEFINED
eventq_index=0
p_state_clk_gate_bins=20
p_state_clk_gate_max=1000000000000
p_state_clk_gate_min=1000
power_model=Null
sequential_access=false
size=65536
tag_latency=2

[system.cpu.dstage2_mmu]
type=ArmStage2MMU
children=stage2_tlb
eventq_index=0
stage2_tlb=system.cpu.dstage2_mmu.stage2_tlb
sys=system
tlb=system.cpu.dtb

[system.cpu.dstage2_mmu.stage2_tlb]
type=ArmTLB
children=walker
eventq_index=0
is_stage2=true
size=32
sys=system
walker=system.cpu.dstage2_mmu.stage2_tlb.walker

[system.cpu.dstage2_mmu.stage2_tlb.walker]
type=ArmTableWalker
clk_domain=system.cpu_clk_domain
default_p_state=UNDEFINED
eventq_index=0
is_stage2=true
num_squash_per_cycle=2
p_state_clk_gate_bins=20
p_state_clk_gate_max=1000000000000
p_state_clk_gate_min=1000
power_model=Null
sys=system

[system.cpu.dtb]
type=ArmTLB
children=walker
eventq_index=0
is_stage2=false
size=64
sys=system
walker=system.cpu.dtb.walker

[system.cpu.dtb.walker]
type=ArmTableWalker
clk_domain=system.cpu_clk_domain
default_p_state=UNDEFINED
eventq_index=0
is_stage2=false
num_squash_per_cycle=2
p_state_clk_gate_bins=20
p_state_clk_gate_max=1000000000000
p_state_clk_gate_min=1000
power_model=Null
sys=system
port=system.tol2bus.slave[3]

[system.cpu.fuPool]
type=FUPool
children=FUList0 FUList1 FUList2 FUList3 FUList4 FUList5 FUList6 FUList7 FUList8
FUList=system.cpu.fuPool.FUList0 system.cpu.fuPool.FUList1 system.cpu.fuPool.FUList2 system.cpu.fuPool.FUList3 system.cpu.fuPool.FUList4 system.cpu.fuPool.FUList5 system.cpu.fuPool.FUList6 system.cpu.fuPool.FUList7 system.cpu.fuPool.FUList8
eventq_index=0

[system.cpu.fuPool.FUList0]
type=FUDesc
children=opList
count=6
eventq_index=0
opList=system.cpu.fuPool.FUList0.opList

[system.cpu.fuPool.FUList0.opList]
type=OpDesc
eventq_index=0
opClass=IntAlu
opLat=1
pipelined=true

[system.cpu.fuPool.FUList1]
type=FUDesc
children=opList0 opList1
count=2
eventq_index=0
opList=system.cpu.fuPool.FUList1.opList0 system.cpu.fuPool.FUList1.opList1

[system.cpu.fuPool.FUList1.opList0]
type=OpDesc
eventq_index=0
opClass=IntMult
opLat=3
pipelined=true

[system.cpu.fuPool.FUList1.opList1]
type=OpDesc
eventq_index=0
opClass=IntDiv
opLat=20
pipelined=false

[system.cpu.fuPool.FUList2]
type=FUDesc
children=opList0 opList1 opList2
count=4
eventq_index=0
opList=system.cpu.fuPool.FUList2.opList0 system.cpu.fuPool.FUList2.opList1 system.cpu.fuPool.FUList2.opList2

[system.cpu.fuPool.FUList2.opList0]
type=OpDesc
eventq_index=0
opClass=FloatAdd
opLat=2
pipelined=true

[system.cpu.fuPool.FUList2.opList1]
type=OpDesc
eventq_index=0
opClass=FloatCmp
opLat=2
pipelined=true

[system.cpu.fuPool.FUList2.opList2]
type=OpDesc
eventq_index=0
opClass=FloatCvt
opLat=2
pipelined=true

[system.cpu.fuPool.FUList3]
type=FUDesc
children=opList0 opList1 opList2 opList3 opList4
count=2
eventq_index=0
opList=system.cpu.fuPool.FUList3.opList0 system.cpu.fuPool.FUList3.opList1 system.cpu.fuPool.FUList3.opList2 system.cpu.fuPool.FUList3.opList3 system.cpu.fuPool.FUList3.opList4

[system.cpu.fuPool.FUList3.opList0]
type=OpDesc
eventq_index=0
opClass=FloatMult
opLat=4
pipelined=true

[system.cpu.fuPool.FUList3.opList1]
type=OpDesc
eventq_index=0
opClass=FloatMultAcc
opLat=5
pipelined=true

[system.cpu.fuPool.FUList3.opList2]
type=OpDesc
eventq_index=0
opClass=FloatMisc
opLat=3
pipelined=true

[system.cpu.fuPool.FUList3.opList3]
type=OpDesc
eventq_index=0
opClass=FloatDiv
opLat=12
pipelined=false

[system.cpu.fuPool.FUList3.opList4]
type=OpDesc
eventq_index=0
opClass=FloatSqrt
opLat=24
pipelined=false

[system.cpu.fuPool.FUList4]
type=FUDesc
children=opList0 opList1
count=0
eventq_index=0
opList=system.cpu.fuPool.FUList4.opList0 system.cpu.fuPool.FUList4.opList1

[system.cpu.fuPool.FUList4.opList0]
type=OpDesc
eventq_index=0
opClass=MemRead
opLat=1
pipelined=true

[system.cpu.fuPool.FUList4.opList1]
type=OpDesc
eventq_index=0
opClass=FloatMemRead
opLat=1
pipelined=true

[system.cpu.fuPool.FUList5]
type=FUDesc
children=opList00 opList01 opList02 opList03 opList04 opList05 opList06 opList07 opList08 opList09 opList10 opList11 opList12 opList13 opList14 opList15 opList16 opList17 opList18 opList19
count=4
eventq_index=0
opList=system.cpu.fuPool.FUList5.opList00 system.cpu.fuPool.FUList5.opList01 system.cpu.fuPool.FUList5.opList02 system.cpu.fuPool.FUList5.opList03 system.cpu.fuPool.FUList5.opList04 system.cpu.fuPool.FUList5.opList05 system.cpu.fuPool.FUList5.opList06 system.cpu.fuPool.FUList5.opList07 system.cpu.fuPool.FUList5.opList08 system.cpu.fuPool.FUList5.opList09 system.cpu.fuPool.FUList5.opList10 system.cpu.fuPool.FUList5.opList11 system.cpu.fuPool.FUList5.opList12 system.cpu.fuPool.FUList5.opList13 system.cpu.fuPool.FUList5.opList14 system.cpu.fuPool.FUList5.opList15 system.cpu.fuPool.FUList5.opList16 system.cpu.fuPool.FUList5.opList17 system.cpu.fuPool.FUList5.opList18 system.cpu.fuPool.FUList5.opList19

[system.cpu.fuPool.FUList5.opList00]
type=OpDesc
eventq_index=0
opClass=SimdAdd
opLat=1
pipelined=true

[system.cpu.fuPool.FUList5.opList01]
type=OpDesc
eventq_index=0
opClass=SimdAddAcc
opLat=1
pipelined=true

[system.cpu.fuPool.FUList5.opList02]
type=OpDesc
eventq_index=0
opClass=SimdAlu
opLat=1
pipelined=true

[system.cpu.fuPool.FUList5.opList03]
type=OpDesc
eventq_index=0
opClass=SimdCmp
opLat=1
pipelined=true

[system.cpu.fuPool.FUList5.opList04]
type=OpDesc
eventq_index=0
opClass=SimdCvt
opLat=1
pipelined=true

[system.cpu.fuPool.FUList5.opList05]
type=OpDesc
eventq_index=0
opClass=SimdMisc
opLat=1
pipelined=true

[system.cpu.fuPool.FUList5.opList06]
type=OpDesc
eventq_index=0
opClass=SimdMult
opLat=1
pipelined=true

[system.cpu.fuPool.FUList5.opList07]
type=OpDesc
eventq_index=0
opClass=SimdMultAcc
opLat=1
pipelined=true

[system.cpu.fuPool.FUList5.opList08]
type=OpDesc
eventq_index=0
opClass=SimdShift
opLat=1
pipelined=true

[system.cpu.fuPool.FUList5.opList09]
type=OpDesc
eventq_index=0
opClass=SimdShiftAcc
opLat=1
pipelined=true

[system.cpu.fuPool.FUList5.opList10]
type=OpDesc
eventq_index=0
opClass=SimdSqrt
opLat=1
pipelined=true

[system.cpu.fuPool.FUList5.opList11]
type=OpDesc
eventq_index=0
opClass=SimdFloatAdd
opLat=1
pipelined=true

[system.cpu.fuPool.FUList5.opList12]
type=OpDesc
eventq_index=0
opClass=SimdFloatAlu
opLat=1
pipelined=true

[system.cpu.fuPool.FUList5.opList13]
type=OpDesc
eventq_index=0
opClass=SimdFloatCmp
opLat=1
pipelined=true

[system.cpu.fuPool.FUList5.opList14]
type=OpDesc
eventq_index=0
opClass=SimdFloatCvt
opLat=1
pipelined=true

[system.cpu.fuPool.FUList5.opList15]
type=OpDesc
eventq_index=0
opClass=SimdFloatDiv
opLat=1
pipelined=true

[system.cpu.fuPool.FUList5.opList16]
type=OpDesc
eventq_index=0
opClass=SimdFloatMisc
opLat=1
pipelined=true

[system.cpu.fuPool.FUList5.opList17]
type=OpDesc
eventq_index=0
opClass=SimdFloatMult
opLat=1
pipelined=true

[system.cpu.fuPool.FUList5.opList18]
type=OpDesc
eventq_index=0
opClass=SimdFloatMultAcc
opLat=1
pipelined=true

[system.cpu.fuPool.FUList5.opList19]
type=OpDesc
eventq_index=0
opClass=SimdFloatSqrt
opLat=1
pipelined=true

[system.cpu.fuPool.FUList6]
type=FUDesc
children=opList0 opList1
count=0
eventq_index=0
opList=system.cpu.fuPool.FUList6.opList0 system.cpu.fuPool.FUList6.opList1

[system.cpu.fuPool.FUList6.opList0]
type=OpDesc
eventq_index=0
opClass=MemWrite
opLat=1
pipelined=true

[system.cpu.fuPool.FUList6.opList1]
type=OpDesc
eventq_index=0
opClass=FloatMemWrite
opLat=1
pipelined=true

[system.cpu.fuPool.FUList7]
type=FUDesc
children=opList0 opList1 opList2 opList3
count=4
eventq_index=0
opList=system.cpu.fuPool.FUList7.opList0 system.cpu.fuPool.FUList7.opList1 system.cpu.fuPool.FUList7.opList2 system.cpu.fuPool.FUList7.opList3

[system.cpu.fuPool.FUList7.opList0]
type=OpDesc
eventq_index=0
opClass=MemRead
opLat=1
pipelined=true

[system.cpu.fuPool.FUList7.opList1]
type=OpDesc
eventq_index=0
opClass=MemWrite
opLat=1
pipelined=true

[system.cpu.fuPool.FUList7.opList2]
type=OpDesc
eventq_index=0
opClass=FloatMemRead
opLat=1
pipelined=true

[system.cpu.fuPool.FUList7.opList3]
type=OpDesc
eventq_index=0
opClass=FloatMemWrite
opLat=1
pipelined=true

[system.cpu.fuPool.FUList8]
type=FUDesc
children=opList
count=1
eventq_index=0
opList=system.cpu.fuPool.FUList8.opList

[system.cpu.fuPool.FUList8.opList]
type=OpDesc
eventq_index=0
opClass=IprAccess
opLat=3
pipelined=false

[system.cpu.icache]
type=Cache
children=tags
addr_ranges=0:18446744073709551615:0:0:0:0
assoc=2
clk_domain=system.cpu_clk_domain
clusivity=mostly_incl
data_latency=2
default_p_state=UNDEFINED
demand_mshr_reserve=1
eventq_index=0
is_read_only=true
max_miss_count=0
mshrs=4
p_state_clk_gate_bins=20
p_state_clk_gate_max=1000000000000
p_state_clk_gate_min=1000
power_model=Null
prefetch_on_access=false
prefetcher=Null
response_latency=2
sequential_access=false
size=32768
system=system
tag_latency=2
tags=system.cpu.icache.tags
tgts_per_mshr=20
write_buffers=8
writeback_clean=true
cpu_side=system.cpu.icache_port
mem_side=system.tol2bus.slave[0]

[system.cpu.icache.tags]
type=LRU
assoc=2
block_size=128
clk_domain=system.cpu_clk_domain
data_latency=2
default_p_state=UNDEFINED
eventq_index=0
p_state_clk_gate_bins=20
p_state_clk_gate_max=1000000000000
p_state_clk_gate_min=1000
power_model=Null
sequential_access=false
size=32768
tag_latency=2

[system.cpu.interrupts]
type=ArmInterrupts
eventq_index=0

[system.cpu.isa]
type=ArmISA
decoderFlavour=Generic
eventq_index=0
fpsid=1090793632
id_aa64afr0_el1=0
id_aa64afr1_el1=0
id_aa64dfr0_el1=1052678
id_aa64dfr1_el1=0
id_aa64isar0_el1=0
id_aa64isar1_el1=0
id_aa64mmfr0_el1=15728642
id_aa64mmfr1_el1=0
id_isar0=34607377
id_isar1=34677009
id_isar2=555950401
id_isar3=17899825
id_isar4=268501314
id_isar5=0
id_mmfr0=270536963
id_mmfr1=0
id_mmfr2=19070976
id_mmfr3=34611729
midr=1091551472
pmu=Null
system=system
vecRegRenameMode=Full

[system.cpu.istage2_mmu]
type=ArmStage2MMU
children=stage2_tlb
eventq_index=0
stage2_tlb=system.cpu.istage2_mmu.stage2_tlb
sys=system
tlb=system.cpu.itb

[system.cpu.istage2_mmu.stage2_tlb]
type=ArmTLB
children=walker
eventq_index=0
is_stage2=true
size=32
sys=system
walker=system.cpu.istage2_mmu.stage2_tlb.walker

[system.cpu.istage2_mmu.stage2_tlb.walker]
type=ArmTableWalker
clk_domain=system.cpu_clk_domain
default_p_state=UNDEFINED
eventq_index=0
is_stage2=true
num_squash_per_cycle=2
p_state_clk_gate_bins=20
p_state_clk_gate_max=1000000000000
p_state_clk_gate_min=1000
power_model=Null
sys=system

[system.cpu.itb]
type=ArmTLB
children=walker
eventq_index=0
is_stage2=false
size=64
sys=system
walker=system.cpu.itb.walker

[system.cpu.itb.walker]
type=ArmTableWalker
clk_domain=system.cpu_clk_domain
default_p_state=UNDEFINED
eventq_index=0
is_stage2=false
num_squash_per_cycle=2
p_state_clk_gate_bins=20
p_state_clk_gate_max=1000000000000
p_state_clk_gate_min=1000
power_model=Null
sys=system
port=system.tol2bus.slave[2]

[system.cpu.tracer]
type=ExeTracer
eventq_index=0

[system.cpu_clk_domain]
type=SrcClockDomain
clock=313
domain_id=-1
eventq_index=0
init_perf_level=0
voltage_domain=system.cpu_voltage_domain

[system.cpu_voltage_domain]
type=VoltageDomain
eventq_index=0
voltage=1.000000

[system.dvfs_handler]
type=DVFSHandler
domains=
enable=false
eventq_index=0
sys_clk_domain=system.clk_domain
transition_latency=100000000

[system.intrctrl]
type=IntrControl
eventq_index=0
sys=system

[system.iobus]
type=NoncoherentXBar
clk_domain=system.clk_domain
default_p_state=UNDEFINED
eventq_index=0
forward_latency=1
frontend_latency=2
p_state_clk_gate_bins=20
p_state_clk_gate_max=1000000000000
p_state_clk_gate_min=1000
power_model=Null
response_latency=2
use_default_range=false
width=16
master=system.realview.realview_io.pio system.realview.uart0.pio system.realview.kmi0.pio system.realview.kmi1.pio system.realview.rtc.pio system.realview.pci_host.pio system.realview.energy_ctrl.pio
slave=system.bridge.master

[system.iobus_dma]
type=NoncoherentXBar
clk_domain=system.clk_domain
default_p_state=UNDEFINED
eventq_index=0
forward_latency=1
frontend_latency=2
p_state_clk_gate_bins=20
p_state_clk_gate_max=1000000000000
p_state_clk_gate_min=1000
power_model=Null
response_latency=2
use_default_range=false
width=16
master=system.iocache.cpu_side
slave=system.Root_Complex.master_dma

[system.iocache]
type=Cache
children=tags
addr_ranges=2147483648:3221225471:0:0:0:0
assoc=8
clk_domain=system.clk_domain
clusivity=mostly_incl
data_latency=50
default_p_state=UNDEFINED
demand_mshr_reserve=1
eventq_index=0
is_read_only=false
max_miss_count=0
mshrs=20
p_state_clk_gate_bins=20
p_state_clk_gate_max=1000000000000
p_state_clk_gate_min=1000
power_model=Null
prefetch_on_access=false
prefetcher=Null
response_latency=50
sequential_access=false
size=1024
system=system
tag_latency=50
tags=system.iocache.tags
tgts_per_mshr=12
write_buffers=8
writeback_clean=false
cpu_side=system.iobus_dma.master[0]
mem_side=system.membus.slave[2]

[system.iocache.tags]
type=LRU
assoc=8
block_size=128
clk_domain=system.clk_domain
data_latency=50
default_p_state=UNDEFINED
eventq_index=0
p_state_clk_gate_bins=20
p_state_clk_gate_max=1000000000000
p_state_clk_gate_min=1000
power_model=Null
sequential_access=false
size=1024
tag_latency=50

[system.l2]
type=Cache
children=tags
addr_ranges=0:18446744073709551615:0:0:0:0
assoc=8
clk_domain=system.cpu_clk_domain
clusivity=mostly_incl
data_latency=20
default_p_state=UNDEFINED
demand_mshr_reserve=1
eventq_index=0
is_read_only=false
max_miss_count=0
mshrs=20
p_state_clk_gate_bins=20
p_state_clk_gate_max=1000000000000
p_state_clk_gate_min=1000
power_model=Null
prefetch_on_access=false
prefetcher=Null
response_latency=20
sequential_access=false
size=2097152
system=system
tag_latency=20
tags=system.l2.tags
tgts_per_mshr=12
write_buffers=8
writeback_clean=false
cpu_side=system.tol2bus.master[0]
mem_side=system.membus.slave[3]

[system.l2.tags]
type=LRU
assoc=8
block_size=128
clk_domain=system.cpu_clk_domain
data_latency=20
default_p_state=UNDEFINED
eventq_index=0
p_state_clk_gate_bins=20
p_state_clk_gate_max=1000000000000
p_state_clk_gate_min=1000
power_model=Null
sequential_access=false
size=2097152
tag_latency=20

[system.mem_ctrls]
type=DRAMCtrl
IDD0=0.055000
IDD02=0.000000
IDD2N=0.032000
IDD2N2=0.000000
IDD2P0=0.000000
IDD2P02=0.000000
IDD2P1=0.032000
IDD2P12=0.000000
IDD3N=0.038000
IDD3N2=0.000000
IDD3P0=0.000000
IDD3P02=0.000000
IDD3P1=0.038000
IDD3P12=0.000000
IDD4R=0.157000
IDD4R2=0.000000
IDD4W=0.125000
IDD4W2=0.000000
IDD5=0.235000
IDD52=0.000000
IDD6=0.020000
IDD62=0.000000
VDD=1.500000
VDD2=0.000000
activation_limit=4
addr_mapping=RoRaBaCoCh
bank_groups_per_rank=0
banks_per_rank=8
burst_length=8
channels=1
clk_domain=system.clk_domain
conf_table_reported=true
default_p_state=UNDEFINED
device_bus_width=8
device_rowbuffer_size=1024
device_size=536870912
devices_per_rank=8
dll=true
eventq_index=0
in_addr_map=true
kvm_map=true
max_accesses_per_row=16
mem_sched_policy=frfcfs
min_writes_per_switch=16
null=false
p_state_clk_gate_bins=20
p_state_clk_gate_max=1000000000000
p_state_clk_gate_min=1000
page_policy=open_adaptive
power_model=Null
range=2147483648:3221225471:6:19:0:0
ranks_per_channel=2
read_buffer_size=32
static_backend_latency=10000
static_frontend_latency=10000
tBURST=5000
tCCD_L=0
tCK=1250
tCL=13750
tCS=2500
tRAS=35000
tRCD=13750
tREFI=7800000
tRFC=260000
tRP=13750
tRRD=6000
tRRD_L=0
tRTP=7500
tRTW=2500
tWR=15000
tWTR=7500
tXAW=30000
tXP=6000
tXPDLL=0
tXS=270000
tXSDLL=0
write_buffer_size=64
write_high_thresh_perc=85
write_low_thresh_perc=50
port=system.membus.master[7]

[system.membus]
type=CoherentXBar
children=badaddr_responder snoop_filter
clk_domain=system.clk_domain
default_p_state=UNDEFINED
eventq_index=0
forward_latency=4
frontend_latency=3
p_state_clk_gate_bins=20
p_state_clk_gate_max=1000000000000
p_state_clk_gate_min=1000
point_of_coherency=true
power_model=Null
response_latency=2
snoop_filter=system.membus.snoop_filter
snoop_response_latency=4
system=system
use_default_range=false
width=16
default=system.membus.badaddr_responder.pio
master=system.bridge.slave system.Root_Complex.slave system.realview.nvmem.port system.realview.gic.pio system.realview.vgic.pio system.realview.gicv2m.pio system.realview.hdlcd.pio system.mem_ctrls.port
slave=system.realview.hdlcd.dma system.system_port system.iocache.mem_side system.l2.mem_side

[system.membus.badaddr_responder]
type=IsaFake
clk_domain=system.clk_domain
default_p_state=UNDEFINED
eventq_index=0
fake_mem=false
p_state_clk_gate_bins=20
p_state_clk_gate_max=1000000000000
p_state_clk_gate_min=1000
pio_addr=0
pio_latency=100000
pio_size=8
power_model=Null
ret_bad_addr=true
ret_data16=65535
ret_data32=4294967295
ret_data64=18446744073709551615
ret_data8=255
system=system
update_data=false
warn_access=warn
pio=system.membus.default

[system.membus.snoop_filter]
type=SnoopFilter
eventq_index=0
lookup_latency=1
max_capacity=8388608
system=system

[system.pcie1]
type=PCIELink
clk_domain=system.clk_domain
default_p_state=UNDEFINED
delay=0
delay_var=0
eventq_index=0
lanes=4
max_queue_size=4
mps=128
p_state_clk_gate_bins=20
p_state_clk_gate_max=1000000000000
p_state_clk_gate_min=1000
power_model=Null
speed=1600.000000
downstreamMaster=system.switch.slave
downstreamSlave=system.switch.master_dma
upstreamMaster=system.Root_Complex.slave_dma1
upstreamSlave=system.Root_Complex.master1

[system.pcie3]
type=PCIELink
clk_domain=system.clk_domain
default_p_state=UNDEFINED
delay=0
delay_var=0
eventq_index=0
lanes=1
max_queue_size=4
mps=128
p_state_clk_gate_bins=20
p_state_clk_gate_max=1000000000000
p_state_clk_gate_min=1000
power_model=Null
speed=1600.000000
downstreamMaster=system.realview.ide.pio
downstreamSlave=system.realview.ide.dma
upstreamMaster=system.switch.slave_dma1
upstreamSlave=system.switch.master1

[system.pcie4]
type=PCIELink
clk_domain=system.clk_domain
default_p_state=UNDEFINED
delay=0
delay_var=0
eventq_index=0
lanes=1
max_queue_size=4
mps=128
p_state_clk_gate_bins=20
p_state_clk_gate_max=1000000000000
p_state_clk_gate_min=1000
power_model=Null
speed=1600.000000
downstreamMaster=system.realview.ethernet2.pio
downstreamSlave=system.realview.ethernet2.dma
upstreamMaster=system.switch.slave_dma2
upstreamSlave=system.switch.master2

[system.pcie5]
type=PCIELink
clk_domain=system.clk_domain
default_p_state=UNDEFINED
delay=0
delay_var=0
eventq_index=0
lanes=1
max_queue_size=4
mps=128
p_state_clk_gate_bins=20
p_state_clk_gate_max=1000000000000
p_state_clk_gate_min=1000
power_model=Null
speed=1600.000000
downstreamMaster=system.realview.ethernet3.pio
downstreamSlave=system.realview.ethernet3.dma
upstreamMaster=system.switch.slave_dma3
upstreamSlave=system.switch.master3

[system.pcie6]
type=PCIELink
clk_domain=system.clk_domain
default_p_state=UNDEFINED
delay=0
delay_var=0
eventq_index=0
lanes=1
max_queue_size=4
mps=128
p_state_clk_gate_bins=20
p_state_clk_gate_max=1000000000000
p_state_clk_gate_min=1000
power_model=Null
speed=1600.000000
downstreamMaster=system.realview.ethernet1.pio
downstreamSlave=system.realview.ethernet1.dma
upstreamMaster=system.Root_Complex.slave_dma2
upstreamSlave=system.Root_Complex.master2

[system.pcie7]
type=PCIELink
clk_domain=system.clk_domain
default_p_state=UNDEFINED
delay=0
delay_var=0
eventq_index=0
lanes=1
max_queue_size=4
mps=128
p_state_clk_gate_bins=20
p_state_clk_gate_max=1000000000000
p_state_clk_gate_min=1000
power_model=Null
speed=1600.000000
downstreamMaster=system.realview.ethernet5.pio
downstreamSlave=system.realview.ethernet5.dma
upstreamMaster=system.Root_Complex.slave_dma3
upstreamSlave=system.Root_Complex.master3

[system.realview]
type=RealView
children=dcc energy_ctrl ethernet1 ethernet2 ethernet3 ethernet5 generic_timer gic gicv2m hdlcd ide kmi0 kmi1 mcc nvmem pci_host realview_io rtc uart0 vgic
eventq_index=0
intrctrl=system.intrctrl
system=system

[system.realview.dcc]
type=SubSystem
children=osc_cpu osc_ddr osc_hsbm osc_pxl osc_smb osc_sys
eventq_index=0
thermal_domain=Null

[system.realview.dcc.osc_cpu]
type=RealViewOsc
dcc=0
device=0
eventq_index=0
freq=16667
parent=system.realview.realview_io
position=0
site=1
voltage_domain=system.voltage_domain

[system.realview.dcc.osc_ddr]
type=RealViewOsc
dcc=0
device=8
eventq_index=0
freq=25000
parent=system.realview.realview_io
position=0
site=1
voltage_domain=system.voltage_domain

[system.realview.dcc.osc_hsbm]
type=RealViewOsc
dcc=0
device=4
eventq_index=0
freq=25000
parent=system.realview.realview_io
position=0
site=1
voltage_domain=system.voltage_domain

[system.realview.dcc.osc_pxl]
type=RealViewOsc
dcc=0
device=5
eventq_index=0
freq=42105
parent=system.realview.realview_io
position=0
site=1
voltage_domain=system.voltage_domain

[system.realview.dcc.osc_smb]
type=RealViewOsc
dcc=0
device=6
eventq_index=0
freq=20000
parent=system.realview.realview_io
position=0
site=1
voltage_domain=system.voltage_domain

[system.realview.dcc.osc_sys]
type=RealViewOsc
dcc=0
device=7
eventq_index=0
freq=16667
parent=system.realview.realview_io
position=0
site=1
voltage_domain=system.voltage_domain

[system.realview.energy_ctrl]
type=EnergyCtrl
clk_domain=system.clk_domain
default_p_state=UNDEFINED
dvfs_handler=system.dvfs_handler
eventq_index=0
p_state_clk_gate_bins=20
p_state_clk_gate_max=1000000000000
p_state_clk_gate_min=1000
pio_addr=268435456
pio_latency=100000
power_model=Null
system=system
pio=system.iobus.master[6]

[system.realview.ethernet1]
type=IGbE_pcie
BAR0=0
BAR0LegacyIO=false
BAR0Size=131072
BAR1=0
BAR1LegacyIO=false
BAR1Size=0
BAR2=0
BAR2LegacyIO=false
BAR2Size=0
BAR3=0
BAR3LegacyIO=false
BAR3Size=0
BAR4=0
BAR4LegacyIO=false
BAR4Size=0
BAR5=0
BAR5LegacyIO=false
BAR5Size=0
BIST=0
CacheLineSize=0
CapabilityPtr=200
CardbusCIS=0
ClassCode=2
Command=7
DeviceID=4307
ExpansionROM=0
HeaderType=0
InterruptLine=3
InterruptPin=2
LatencyTimer=0
LegacyIOBase=0
MSICAPBaseOffset=208
MSICAPCapId=5
MSICAPMaskBits=0
MSICAPMsgAddr=0
MSICAPMsgCtrl=128
MSICAPMsgData=0
MSICAPMsgUpperAddr=0
MSICAPNextCapability=224
MSICAPPendingBits=0
MSIXCAPBaseOffset=160
MSIXCAPCapId=17
MSIXCAPNextCapability=0
MSIXMsgCtrl=1
MSIXPbaOffset=16387
MSIXTableOffset=3
MaximumLatency=0
MinimumGrant=255
PMCAPBaseOffset=200
PMCAPCapId=1
PMCAPCapabilities=34
PMCAPCtrlStatus=0
PMCAPNextCapability=208
PXCAPBaseOffset=224
PXCAPCapId=16
PXCAPCapabilities=1
PXCAPDevCap2=0
PXCAPDevCapabilities=36033
PXCAPDevCtrl=10256